@<TRIPOS>MOLECULE
*****
 22 22 0 0 0
SMALL
GASTEIGER

@<TRIPOS>ATOM
      1  C4        24.2297  -23.9203    0.0109 C.3   167  JZ4167     -0.0650
      2  C7        21.5159  -27.2730   -4.2341 C.ar  167  JZ4167     -0.0613
      3  C8        21.8866  -26.7464   -5.4686 C.ar  167  JZ4167     -0.0583
      4  C9        22.4854  -25.4908   -5.5362 C.ar  167  JZ4167     -0.0199
      5  C10       22.7139  -24.7580   -4.3720 C.ar  167  JZ4167      0.1200
      6  C11       21.7423  -26.5431   -3.0690 C.ar  167  JZ4167     -0.0551
      7  C12       22.3395  -25.2809   -3.1265 C.ar  167  JZ4167     -0.0060
      8  C13       22.5749  -24.5079   -1.8336 C.3   167  JZ4167     -0.0245
      9  C14       24.0086  -24.7009   -1.2976 C.3   167  JZ4167     -0.0518
     10  OAB       23.3102  -23.5350   -4.4729 O.3   167  JZ4167     -0.5065
     11 HOAB       23.4272  -23.1559   -3.5837 H     167  JZ4167      0.2921
     12 H14A       24.7312  -24.3638   -2.0448 H     167  JZ4167      0.0266
     13 H13A       22.3801  -23.4448   -1.9944 H     167  JZ4167      0.0314
     14  H9        22.7768  -25.0829   -6.5013 H     167  JZ4167      0.0654
     15  H8        21.7109  -27.3146   -6.3786 H     167  JZ4167      0.0619
     16  H7        21.0502  -28.2540   -4.1793 H     167  JZ4167      0.0618
     17  H4B       24.0775  -22.8501   -0.1474 H     167  JZ4167      0.0230
     18  H4A       23.5371  -24.2597    0.7847 H     167  JZ4167      0.0230
     19  H4        25.2490  -24.0717    0.3731 H     167  JZ4167      0.0230
     20  H14       24.1925  -25.7633   -1.1198 H     167  JZ4167      0.0266
     21  H13       21.8608  -24.8396   -1.0756 H     167  JZ4167      0.0314
     22  H11       21.4506  -26.9654   -2.1102 H     167  JZ4167      0.0621
@<TRIPOS>BOND
     1    14     4    1
     2    15     3    1
     3     4     3   ar
     4     4     5   ar
     5     3     2   ar
     6    10     5    1
     7    10    11    1
     8     5     7   ar
     9     2    16    1
    10     2     6   ar
    11     7     6   ar
    12     7     8    1
    13     6    22    1
    14    12     9    1
    15    13     8    1
    16     8     9    1
    17     8    21    1
    18     9    20    1
    19     9     1    1
    20    17     1    1
    21     1    19    1
    22     1    18    1
